55
Ni atoms
Ni 0.0 0.0 0.0
Ni 1.4385765632017395e-16 2.349373818154479 1.4385765632017395e-16
Ni -0.9856097705805211 1.9020972179798676 0.9028992865708588
Ni 0.15657913084914155 1.4774963910207017 -1.7841384359201138
Ni 1.3029698123897024 1.0928279580513927 1.6994933892935395
Ni -2.316065459665785 0.6667348985047994 -0.40967936865566423
Ni 2.1187096635686142 0.22922623077163087 -1.347749660119876
Ni -0.6389217819442065 -0.22467004966464504 2.376757182068656
Ni -1.0449924966045254 -0.6427056061740734 -2.0120694629496785
Ni 2.024172832873231 -1.0996837581796257 0.7392246720676814
Ni -1.8187635408024208 -1.6232061288761186 0.7507591504992011
Ni 0.5589956590607656 -1.8767778330915064 -1.194541254457098
Ni 1.5903451184026583e-16 -2.597230678281964 1.5903451184026583e-16
Ni 2.0815402931956793e-16 3.3994132751499104 2.0815402931956793e-16
Ni -2.0639413841811143 2.0992966806112183 1.890739376704417
Ni 0.298851835156671 0.6977680265144601 -3.405262520341819
Ni 2.0335385140163127 -0.6822284663112806 2.6523908908573306
Ni -2.788350990117849 -2.1237276362865107 -0.4932200290171059
Ni 2.171801346149857e-16 -3.546820761156522 2.171801346149857e-16
Ni 2.665251670309072e-16 4.352686296432121 2.665251670309072e-16
Ni -1.297669996312186 3.9396479846608377 1.1887720159110988
Ni 0.22508733990300434 3.774077270603897 -2.5647541430465632
Ni 1.7337814749547653 3.126948396267111 2.2614109146252033
Ni -3.210575760396594 2.8049653726782395 -0.5679056457800887
Ni 2.9417564383352364 2.38881382254992 -1.87130464739742
Ni -0.953104257834841 1.9993605718504397 3.545500332100105
Ni -1.850069525718141 1.7067826704800508 -3.5621962924390496
Ni 3.8516127916682783 1.3101043025422185 1.4066028140547542
Ni -3.9340435768799087 0.9478934989129507 1.623915999823779
Ni 1.7390977528398088 0.5398032475149044 -3.7163508832811156
Ni 1.3158744834508633 0.1913437148005967 4.195215205692358
Ni -3.7471159218751775 -0.18847685655284807 -2.171530268916436
Ni 4.23715372992826 -0.5707466732893055 -0.9315263613742459
Ni -2.3919998277252827 -0.9262970678449324 3.4023736102004283
Ni -0.5184260913755007 -1.2889171941183426 -4.000658366692499
Ni 2.978647822201368 -1.6563821357573922 2.5104075379662154
Ni -3.7415562808964484 -2.039322488408043 0.15472509900004172
Ni 2.5155296572051378 -2.4315310099855934 -2.5032879926098865
Ni -0.15159941180163794 -2.8235171256914957 3.2784770500171483
Ni -1.8403783442553605 -3.152023828566728 -2.2053883319380403
Ni 2.5172989340871887 -3.7233141364814353 0.33869901122972335
Ni -1.4512082226340244 -3.9576690599240867 1.0097128826022268
Ni 2.5912854172981577e-16 -4.2318902382340955 2.5912854172981577e-16
Ni 3.143301922272765e-16 5.1334016051995635 3.143301922272765e-16
Ni -2.1246694251837637 4.100332528550921 1.9463712368308062
Ni 0.33289670132534843 3.14124667906595 -3.793186210733323
Ni 2.6166146570507745 2.19460928832087 3.412910467841563
Ni -4.7734166706952434 1.3741422834898473 -0.8443501973657707
Ni 4.12784596509127 0.4465975626835166 -2.625797716478293
Ni -1.2179929331237056 -0.4282942615344826 4.530873000919898
Ni -2.1554860549722505 -1.32569657300131 -4.150257234492717
Ni 4.247661337048479 -2.307650861991539 1.5512391076196603
Ni -3.4647264853561075 -3.0921915574732757 1.4301887268481424
Ni 1.207905847108786 -4.055435639919623 -2.5812246347239394
Ni 3.075296170539564e-16 -5.022339784304675 3.075296170539564e-16
