17
Ni atoms
Ni 0.0 0.0 0.0
Cl 0.7146776895075129 1.7683479351209708 -0.8735954211363814
Cl -1.6643651389096332 0.20375619045223733 1.3158233545829754
Cl -0.627721225981109 -1.982502732580027 0.5836995611824121
Zn -0.891080726374002 2.7937857039953977 0.8505784172809675
Zn 1.133948832101294 -2.4910113380810337 -1.1629162718854416
Cl -0.8545465267949021 4.813559450255616 -0.7315940043509187
Cl -0.6703645460123339 -4.195926795773953 -0.6373763492183202
K 1.0216896922887453 6.194171352189335 0.3875831516759277
K -2.6609949469043688 3.910319929967466 2.398396379920509
K 0.522577423824546 3.094315001590938 -4.558199812434945
K 4.213636859891394 1.4509286952595875 5.2889234890203864
K -4.771808388571492 0.11274978384014733 -1.2368633152438093
K 4.352728374422161 -0.8387354801018739 -2.1926157048333845
K -1.3857708026555384 -2.7333008798776843 4.041635801493141
K -1.7614094728626473 -4.262693322191745 -3.0503875862422296
K 0.13753906321291193 -5.5957752349496905 1.404771125188612
